Version 4
SHEET 1 1100 680
WIRE 640 64 432 64
WIRE 224 80 192 80
WIRE 640 80 640 64
WIRE 224 112 224 80
WIRE 432 144 432 64
WIRE 192 160 192 80
WIRE -64 176 -128 176
WIRE 48 176 16 176
WIRE 160 176 48 176
WIRE 48 192 48 176
WIRE 368 192 224 192
WIRE -128 208 -128 176
WIRE 160 208 128 208
WIRE 128 256 128 208
WIRE 432 256 432 240
WIRE 432 256 128 256
WIRE 544 256 432 256
WIRE 544 288 544 256
WIRE 192 304 192 224
FLAG -128 288 0
FLAG 224 112 0
FLAG 192 384 0
FLAG 48 256 0
FLAG 640 160 0
FLAG 544 368 0
SYMBOL voltage -128 192 R0
WINDOW 123 0 0 Left 2
WINDOW 39 0 0 Left 2
SYMATTR InstName V2
SYMATTR Value PULSE(0 5 0 0 0 40u 50u)
SYMBOL voltage 192 288 R0
SYMATTR InstName V1
SYMATTR Value 12
SYMBOL npn 368 144 R0
SYMATTR InstName Q1
SYMATTR Value ZTX1048A
SYMBOL voltage 640 64 R0
SYMATTR InstName V3
SYMATTR Value 12
SYMBOL cap 32 192 R0
SYMATTR InstName C1
SYMATTR Value 1µ
SYMBOL res 32 160 R90
WINDOW 0 0 56 VBottom 2
WINDOW 3 32 56 VTop 2
SYMATTR InstName R1
SYMATTR Value 4.7k
SYMBOL res 528 272 R0
SYMATTR InstName R6
SYMATTR Value 1
SYMBOL Opamps\\LT1013 192 256 M180
SYMATTR InstName U1
TEXT -288 312 Left 2 !.tran 50m
