Version 4
SHEET 1 1100 680
WIRE -368 -32 -400 -32
WIRE -304 -32 -368 -32
WIRE -208 -32 -240 -32
WIRE 192 -32 -208 -32
WIRE -464 32 -464 -32
WIRE -368 64 -368 32
WIRE 640 64 432 64
WIRE 640 80 640 64
WIRE 432 144 432 64
WIRE -368 160 -368 144
WIRE 192 160 192 -32
WIRE -64 176 -128 176
WIRE 48 176 16 176
WIRE 160 176 48 176
WIRE 48 192 48 176
WIRE 368 192 224 192
WIRE -128 208 -128 176
WIRE 160 208 128 208
WIRE 128 256 128 208
WIRE 432 256 432 240
WIRE 432 256 128 256
WIRE 544 256 432 256
WIRE 544 288 544 256
WIRE 192 304 192 224
FLAG -128 288 0
FLAG 192 384 0
FLAG 48 256 0
FLAG 640 160 0
FLAG 544 368 0
FLAG -368 160 0
FLAG -464 32 0
FLAG -208 32 0
SYMBOL voltage -128 192 R0
WINDOW 123 0 0 Left 2
WINDOW 39 0 0 Left 2
SYMATTR InstName V2
SYMATTR Value PULSE(0 5 0 0 0 1u 500u)
SYMBOL voltage 192 288 R0
SYMATTR InstName V1
SYMATTR Value 12
SYMBOL npn 368 144 R0
SYMATTR InstName Q1
SYMATTR Value ZTX1048A
SYMBOL voltage 640 64 R0
SYMATTR InstName V3
SYMATTR Value 12
SYMBOL cap 32 192 R0
SYMATTR InstName C1
SYMATTR Value 1µ
SYMBOL res 32 160 R90
WINDOW 0 0 56 VBottom 2
WINDOW 3 32 56 VTop 2
SYMATTR InstName R1
SYMATTR Value 4.7k
SYMBOL res 528 272 R0
SYMATTR InstName R6
SYMATTR Value 1
SYMBOL voltage -368 48 R0
WINDOW 0 -62 108 Left 2
WINDOW 3 -200 152 Left 2
WINDOW 123 0 0 Left 2
WINDOW 39 0 0 Left 2
SYMATTR InstName V4
SYMATTR Value PULSE(0 5V 0 0 0 1mS 2mS)
SYMBOL cap -384 -32 R0
WINDOW 0 39 24 Left 2
WINDOW 3 38 55 Left 2
SYMATTR InstName C2
SYMATTR Value 100µF
SYMBOL cap -224 -32 R0
WINDOW 0 43 27 Left 2
WINDOW 3 42 53 Left 2
SYMATTR InstName C3
SYMATTR Value 100µF
SYMBOL diode -400 -48 R90
WINDOW 0 0 32 VBottom 2
WINDOW 3 -54 9 VTop 2
SYMATTR InstName D1
SYMATTR Value 1N4148
SYMBOL diode -240 -48 R90
WINDOW 0 0 32 VBottom 2
WINDOW 3 -57 10 VTop 2
SYMATTR InstName D2
SYMATTR Value 1N4148
SYMBOL Opamps\\OP27 192 256 M180
SYMATTR InstName U1
TEXT -288 312 Left 2 !.tran 1
